
     RDKit          3D

  7  0  0  0  0  0  0  0  0  0999 V2000
    8.2914    1.1069    4.8972 N   0  0  0  0  0  0  0  0  0  0  0  0
    6.1698    1.2183   -8.7291 N   0  0  0  0  0  0  0  0  0  0  0  0
    7.9934   -6.8662    5.7167 N   0  0  0  0  0  0  0  0  0  0  0  0
   -0.6492    7.0522    3.5541 O   0  0  0  0  0  0  0  0  0  0  0  0
   10.1686    4.4010   -5.2345 O   0  0  0  0  0  0  0  0  0  0  0  0
   -2.9428   -3.7984    5.0409 O   0  0  0  0  0  0  0  0  0  0  0  0
    1.0119   -5.9356    1.6974 O   0  0  0  0  0  0  0  0  0  0  0  0
M  END
